BB_000001
     RDKit          2D

  1  0  0  0  0  0  0  0  0  0999 V2000
    0.0000    0.0000    0.0000 Li  0  0  0  0  0 15  0  0  0  1  0  0
M  CHG  1   1   1
M  END
>  <LN_ppg>  (1) 
89
>  <SA_ppg>
9
>  <EM_ppg>
95
>  <orig_smiles>
[Li+]
$$$$

>  <ID>  (1) 
BB_000001

$$$$
BB_000002
     RDKit          2D

  1  0  0  0  0  0  0  0  0  0999 V2000
    0.0000    0.0000    0.0000 Cs  0  0  0  0  0 15  0  0  0  1  0  0
M  CHG  1   1   1
M  END
>  <LN_ppg>  (2) 
90
>  <SA_ppg>
12
>  <EM_ppg>
75
>  <orig_smiles>
[Cs+]
$$$$

>  <ID>  (2) 
BB_000002

$$$$
BB_000003
     RDKit          2D

  1  0  0  0  0  0  0  0  0  0999 V2000
    0.0000    0.0000    0.0000 Na  0  0  0  0  0 15  0  0  0  1  0  0
M  CHG  1   1   1
M  END
>  <LN_ppg>  (3) 
100
>  <SA_ppg>
1
>  <EM_ppg>
100
>  <orig_smiles>
[Na+]
$$$$

>  <ID>  (3) 
BB_000003

$$$$
BB_000004
     RDKit          2D

  1  0  0  0  0  0  0  0  0  0999 V2000
    0.0000    0.0000    0.0000 Cl  0  0  0  0  0  0  0  0  0  1  0  0
M  END
>  <LN_ppg>  (4) 
100
>  <SA_ppg>
81
>  <EM_ppg>
100
>  <orig_smiles>
Cl
$$$$

>  <ID>  (4) 
BB_000004

$$$$
BB_000005
     RDKit          2D

  1  0  0  0  0  0  0  0  0  0999 V2000
    0.0000    0.0000    0.0000 Cl  0  0  0  0  0  0  0  0  0  1  0  0
M  CHG  1   1  -1
M  END
>  <LN_ppg>  (5) 
100
>  <SA_ppg>
75
>  <EM_ppg>
100
>  <orig_smiles>
[Cl-]
$$$$

>  <ID>  (5) 
BB_000005

$$$$
BB_000006
     RDKit          2D

  1  0  0  0  0  0  0  0  0  0999 V2000
    0.0000    0.0000    0.0000 O   0  0  0  0  0  0  0  0  0  1  0  0
M  END
>  <LN_ppg>  (6) 
100
>  <SA_ppg>
76
>  <EM_ppg>
100
>  <orig_smiles>
O
$$$$
